---- qbsp / ericw-tools v0.18.1 ----
Input file: Zombie_test.map
Output file: Zombie_test.bsp

---- LoadMapFile ----
*** WARNING 06: No info_player_deathmatch entities in level
           48 faces
            8 brushes
            9 entities
            3 unique texnames
           16 texinfo

Opened WAD: F:/Quake_TrenchBroom/wads/rogue.wad
Processing hull 0...
---- Brush_LoadEntity ----
            8 brushes
           18 planes
---- CSGFaces ----
           48 brushfaces
           54 csgfaces
           54 mergedfaces
---- SolidBSP ----
           72 split nodes
           23 solid leafs
           50 empty leafs
            0 water leafs
            0 detail leafs
            0 detail illusionary leafs
            0 detail fence leafs
            0 illusionary visblocker leafs
          208 leaffaces
          204 nodefaces
---- Portalize ----
           50 vis leafs
           50 vis clusters
          101 vis portals
---- FillOutside ----
           43 outleafs
---- MergeAll ----
           22 mergefaces
---- SolidBSP ----
           15 split nodes
           10 solid leafs
            6 empty leafs
            0 water leafs
            0 detail leafs
            0 detail illusionary leafs
            0 detail fence leafs
            0 illusionary visblocker leafs
           82 leaffaces
           66 nodefaces
---- Portalize ----
            6 vis leafs
            6 vis clusters
            7 vis portals
---- Tjunc ----
           58 world edges
          220 edge points
           48 edges added by tjunctions
            0 faces added by tjunctions
---- MakeFaceEdges ----
---- GrowRegions ----
Processing hull 1...
Processing hull 2...
---- WriteBSPFile ----
Wrote Zombie_test.bsp
           35 planes              700
           88 vertexes           1056
           15 nodes               360
            5 texinfo             200
           66 faces              1320
           58 clipnodes           464
            7 leafs               196
           82 marksurfaces        164
          312 surfedges          1248
          157 edges               628
            3 textures          16456
              lightdata             0
              visdata               0
              entdata             599

0.093 seconds elapsed
Peak memory usage: 672044 (0.6M)
