---- qbsp / ericw-tools v0.18.1 ----
Input file: DataCenter.map
Output file: DataCenter.bsp

---- LoadMapFile ----
          836 faces
          138 brushes
          225 entities
            4 unique texnames
          148 texinfo

Opened WAD: F:/map_DataCenter/wads/rogue.wad
Processing hull 0...
---- Brush_LoadEntity ----
          136 brushes
          150 planes
---- CSGFaces ----
          824 brushfaces
         1000 csgfaces
          917 mergedfaces
---- SolidBSP ----
         1371 split nodes
          647 solid leafs
          725 empty leafs
            0 water leafs
            0 detail leafs
            0 detail illusionary leafs
            0 detail fence leafs
            0 illusionary visblocker leafs
         3485 leaffaces
         3362 nodefaces
---- Portalize ----
          725 vis leafs
          725 vis clusters
         1618 vis portals
---- FillOutside ----
          516 outleafs
---- MergeAll ----
          468 mergefaces
---- SolidBSP ----
          405 split nodes
          258 solid leafs
          148 empty leafs
            0 water leafs
            0 detail leafs
            0 detail illusionary leafs
            0 detail fence leafs
            0 illusionary visblocker leafs
         1232 leaffaces
         1107 nodefaces
---- Portalize ----
          148 vis leafs
          148 vis clusters
          280 vis portals
---- Tjunc ----
          768 world edges
         3703 edge points
          905 edges added by tjunctions
            0 faces added by tjunctions
---- MakeFaceEdges ----
---- GrowRegions ----
Processing hull 1...
*** WARNING 19: No entities in empty space -- no filling performed (hull 1)
Processing hull 2...
*** WARNING 19: No entities in empty space -- no filling performed (hull 2)
---- WriteBSPFile ----
Wrote DataCenter.bsp
          335 planes             6700
         1553 vertexes          18636
          417 nodes             10008
           69 texinfo            2760
         1119 faces             22380
         2746 clipnodes         21968
          161 leafs              4508
         1244 marksurfaces       2488
         5372 surfedges         21488
         2687 edges             10748
            4 textures          21940
              lightdata             0
              visdata               0
              entdata           12295

0.310 seconds elapsed
Peak memory usage: 11111620 (10.6M)
