---- qbsp / ericw-tools v0.18.1 ----
Input file: DataCenter.map
Output file: DataCenter.bsp

---- LoadMapFile ----
         1758 faces
          290 brushes
          220 entities
           16 unique texnames
          357 texinfo

Opened WAD: F:/map_DataCenter/wads/rogue.wad
Processing hull 0...
---- Brush_LoadEntity ----
          288 brushes
          279 planes
---- CSGFaces ----
         1746 brushfaces
         2086 csgfaces
         1816 mergedfaces
---- SolidBSP ----
         3188 split nodes
         1516 solid leafs
         1673 empty leafs
            0 water leafs
            0 detail leafs
            0 detail illusionary leafs
            0 detail fence leafs
            0 illusionary visblocker leafs
         6308 leaffaces
         5930 nodefaces
---- Portalize ----
         1673 vis leafs
         1673 vis clusters
         4358 vis portals
---- FillOutside ----
          889 outleafs
---- MergeAll ----
         1220 mergefaces
---- SolidBSP ----
         1025 split nodes
          594 solid leafs
          432 empty leafs
            0 water leafs
            0 detail leafs
            0 detail illusionary leafs
            0 detail fence leafs
            0 illusionary visblocker leafs
         2797 leaffaces
         2411 nodefaces
---- Portalize ----
          432 vis leafs
          432 vis clusters
         1053 vis portals
---- Tjunc ----
         1966 world edges
         8509 edge points
         2111 edges added by tjunctions
            0 faces added by tjunctions
---- MakeFaceEdges ----
---- GrowRegions ----
Processing hull 1...
Processing hull 2...
*** WARNING 19: No entities in empty space -- no filling performed (hull 2)
---- WriteBSPFile ----
Wrote DataCenter.bsp
          532 planes            10640
         3419 vertexes          41028
         1037 nodes             24888
          234 texinfo            9360
         2423 faces             48460
         3399 clipnodes         27192
          445 leafs             12460
         2809 marksurfaces       5618
        11744 surfedges         46976
         5875 edges             23500
           16 textures         115288
              lightdata             0
              visdata               0
              entdata           12208

0.531 seconds elapsed
Peak memory usage: 20387322 (19.4M)
