---- qbsp / ericw-tools v0.18.1 ----
Input file: DataCenter.map
Output file: DataCenter.bsp

---- LoadMapFile ----
         1760 faces
          290 brushes
          229 entities
           16 unique texnames
          360 texinfo

Opened WAD: F:/map_DataCenter/wads/rogue.wad
Processing hull 0...
---- Brush_LoadEntity ----
          288 brushes
          282 planes
---- CSGFaces ----
         1748 brushfaces
         2095 csgfaces
         1822 mergedfaces
---- SolidBSP ----
         3201 split nodes
         1521 solid leafs
         1681 empty leafs
            0 water leafs
            0 detail leafs
            0 detail illusionary leafs
            0 detail fence leafs
            0 illusionary visblocker leafs
         6332 leaffaces
         5951 nodefaces
---- Portalize ----
         1681 vis leafs
         1681 vis clusters
         4372 vis portals
---- FillOutside ----
          893 outleafs
---- MergeAll ----
         1218 mergefaces
---- SolidBSP ----
         1024 split nodes
          594 solid leafs
          431 empty leafs
            0 water leafs
            0 detail leafs
            0 detail illusionary leafs
            0 detail fence leafs
            0 illusionary visblocker leafs
         2791 leaffaces
         2409 nodefaces
---- Portalize ----
          431 vis leafs
          431 vis clusters
         1046 vis portals
---- Tjunc ----
         1960 world edges
         8490 edge points
         2108 edges added by tjunctions
            0 faces added by tjunctions
---- MakeFaceEdges ----
---- GrowRegions ----
Processing hull 1...
Processing hull 2...
*** WARNING 19: No entities in empty space -- no filling performed (hull 2)
---- WriteBSPFile ----
Wrote DataCenter.bsp
          529 planes            10580
         3410 vertexes          40920
         1036 nodes             24864
          235 texinfo            9400
         2421 faces             48420
         3395 clipnodes         27160
          444 leafs             12432
         2803 marksurfaces       5606
        11722 surfedges         46888
         5864 edges             23456
           16 textures         115288
              lightdata             0
              visdata               0
              entdata           12698

0.831 seconds elapsed
Peak memory usage: 20420246 (19.5M)
