---- qbsp / ericw-tools v0.18.1 ----
Input file: DataCenter.map
Output file: DataCenter.bsp

---- LoadMapFile ----
         1084 faces
          179 brushes
          216 entities
           12 unique texnames
          194 texinfo

Opened WAD: F:/map_DataCenter/wads/rogue.wad
Processing hull 0...
---- Brush_LoadEntity ----
          177 brushes
          189 planes
---- CSGFaces ----
         1072 brushfaces
         1263 csgfaces
         1120 mergedfaces
---- SolidBSP ----
         1625 split nodes
          773 solid leafs
          853 empty leafs
            0 water leafs
            0 detail leafs
            0 detail illusionary leafs
            0 detail fence leafs
            0 illusionary visblocker leafs
         3788 leaffaces
         3612 nodefaces
---- Portalize ----
          853 vis leafs
          853 vis clusters
         1889 vis portals
---- FillOutside ----
          578 outleafs
---- MergeAll ----
          675 mergefaces
---- SolidBSP ----
          552 split nodes
          343 solid leafs
          210 empty leafs
            0 water leafs
            0 detail leafs
            0 detail illusionary leafs
            0 detail fence leafs
            0 illusionary visblocker leafs
         1534 leaffaces
         1326 nodefaces
---- Portalize ----
          210 vis leafs
          210 vis clusters
          423 vis portals
---- Tjunc ----
         1000 world edges
         4526 edge points
         1022 edges added by tjunctions
            0 faces added by tjunctions
---- MakeFaceEdges ----
---- GrowRegions ----
Processing hull 1...
*** WARNING 19: No entities in empty space -- no filling performed (hull 1)
Processing hull 2...
*** WARNING 19: No entities in empty space -- no filling performed (hull 2)
---- WriteBSPFile ----
Wrote DataCenter.bsp
          399 planes             7980
         1823 vertexes          21876
          564 nodes             13536
           96 texinfo            3840
         1338 faces             26760
         3331 clipnodes         26648
          223 leafs              6244
         1546 marksurfaces       3092
         6350 surfedges         25400
         3176 edges             12704
           12 textures          65812
              lightdata             0
              visdata               0
              entdata           11966

0.341 seconds elapsed
Peak memory usage: 12695088 (12.1M)
